14
[H]C([H])(C([H])(C([H])([H])O[H])O[H])O[H]
O	2.329629	0.555306	-0.698368
C	1.095421	-0.163464	-0.750286
C	0.310266	0.088259	0.539577
O	0.034803	1.498653	0.617539
C	-1.009173	-0.682058	0.580971
O	-1.858787	-0.215433	-0.468808
H	2.099606	1.436212	-0.340832
H	1.323218	-1.225489	-0.878893
H	0.551076	0.194574	-1.629905
H	0.928895	-0.165217	1.406885
H	-0.734451	1.63774	0.027354
H	-1.526019	-0.492547	1.527133
H	-0.84877	-1.757745	0.461961
H	-2.695713	-0.708792	-0.394328
