14
[H]C([H])(C([H])(C([H])([H])O[H])O[H])O[H]
O	1.695028	0.59682	-0.435112
C	0.791451	-0.422921	-0.74711
C	-0.084839	-0.596819	0.476928
O	-1.034671	-1.575512	0.323588
C	-0.710081	0.772792	0.747915
O	-1.516473	1.075771	-0.345989
H	2.342132	0.189712	0.212797
H	1.387969	-1.310142	-0.982601
H	0.214197	-0.096651	-1.631601
H	0.584878	-0.867312	1.318821
H	-1.429187	-1.611791	-0.581824
H	-1.3561	0.636976	1.652935
H	0.103409	1.499034	0.907298
H	-0.987711	1.710044	-0.916046
